electric-grid/physical/synthetic/synAustinTD/models/syn-austin-D_only-v03/P1R/base/opendss/p1rhs4_1247/Master.dss
Clear

New Circuit.substation_p1rhs4_69 bus1=p1rhs4_69 pu=1.0 basekV=69.0 R1=1e-05 X1=1e-05 R0=1e-05 X0=1e-05

Redirect Transformers.dss
Redirect p1rhs4_1247--p1rdt6999/Transformers.dss
Redirect p1rhs4_1247--p1rdt5851/Transformers.dss
Redirect p1rhs4_1247--p1rdt2300/Transformers.dss
Redirect p1rhs4_1247--p1rdt5481/Transformers.dss
Redirect p1rhs4_1247--p1rdt4715/Transformers.dss
Redirect p1rhs4_1247--p1rdt5185/Transformers.dss
Redirect p1rhs4_1247--p1rdt4715/Regulators.dss
Redirect p1rhs4_1247--p1rdt5185/Regulators.dss
Redirect p1rhs4_1247--p1rdt5481/Regulators.dss
Redirect Regulators.dss
Redirect p1rhs4_1247--p1rdt6999/Loads.dss
Redirect p1rhs4_1247--p1rdt5851/Loads.dss
Redirect p1rhs4_1247--p1rdt2300/Loads.dss
Redirect p1rhs4_1247--p1rdt5481/Loads.dss
Redirect p1rhs4_1247--p1rdt4715/Loads.dss
Redirect p1rhs4_1247--p1rdt5185/Loads.dss
Redirect LineCodes.dss
Redirect p1rhs4_1247--p1rdt6999/LineCodes.dss
Redirect p1rhs4_1247--p1rdt5851/LineCodes.dss
Redirect p1rhs4_1247--p1rdt2300/LineCodes.dss
Redirect p1rhs4_1247--p1rdt5481/LineCodes.dss
Redirect p1rhs4_1247--p1rdt4715/LineCodes.dss
Redirect p1rhs4_1247--p1rdt5185/LineCodes.dss
Redirect Lines.dss
Redirect p1rhs4_1247--p1rdt6999/Lines.dss
Redirect p1rhs4_1247--p1rdt5851/Lines.dss
Redirect p1rhs4_1247--p1rdt2300/Lines.dss
Redirect p1rhs4_1247--p1rdt5481/Lines.dss
Redirect p1rhs4_1247--p1rdt4715/Lines.dss
Redirect p1rhs4_1247--p1rdt5185/Lines.dss

Set Voltagebases=[0.2080002494301389, 0.48, 7.199560000000001, 12.47, 69.0]

Calcvoltagebases

Buscoords Buscoords.dss

Solve